<?xml version="1.0" encoding="UTF-8"?>

<!-- generated on 2022-08-26 10:10:18 by Eclipse SUMO netedit Version 1.12.0
<configuration xmlns:xsi="http://www.w3.org/2001/XMLSchema-instance" xsi:noNamespaceSchemaLocation="http://sumo.dlr.de/xsd/netconvertConfiguration.xsd">

    <output>
        <output-file value="/Users/segata/src/plexe/examples/intersectionMerging/sumocfg/intersectionnew.net.xml"/>
    </output>

    <processing>
        <offset.disable-normalization value="true"/>
    </processing>

    <junctions>
        <no-turnarounds value="true"/>
    </junctions>

    <report>
        <aggregate-warnings value="5"/>
    </report>

</configuration>
-->

<net version="1.9" junctionCornerDetail="5" limitTurnSpeed="5.50" xmlns:xsi="http://www.w3.org/2001/XMLSchema-instance" xsi:noNamespaceSchemaLocation="http://sumo.dlr.de/xsd/net_file.xsd">

    <location netOffset="0.00,0.00" convBoundary="-400.00,-700.00,600.00,-100.00" origBoundary="10000000000.00,10000000000.00,-10000000000.00,-10000000000.00" projParameter="!"/>

    <edge id=":CENTER_0" function="internal">
        <lane id=":CENTER_0_0" index="0" speed="13.89" length="0.10" shape="112.50,-98.40 112.50,-98.40"/>
    </edge>
    <edge id=":CENTER_1" function="internal">
        <lane id=":CENTER_1_0" index="0" speed="13.89" length="0.10" shape="112.50,-101.60 112.50,-101.60"/>
    </edge>
    <edge id=":INTERSECTION_0" function="internal">
        <lane id=":INTERSECTION_0_0" index="0" speed="13.89" length="14.40" shape="107.20,-98.40 92.80,-98.40"/>
    </edge>
    <edge id=":INTERSECTION_1" function="internal">
        <lane id=":INTERSECTION_1_0" index="0" speed="8.00" length="4.07" shape="107.20,-98.40 103.35,-98.95 103.20,-99.04"/>
    </edge>
    <edge id=":INTERSECTION_6" function="internal">
        <lane id=":INTERSECTION_6_0" index="0" speed="8.00" length="10.13" shape="103.20,-99.04 100.60,-100.60 98.95,-103.35 98.40,-107.20"/>
    </edge>
    <edge id=":INTERSECTION_2" function="internal">
        <lane id=":INTERSECTION_2_0" index="0" speed="6.51" length="9.03" shape="101.60,-107.20 101.95,-104.75 103.00,-103.00 104.75,-101.95 107.20,-101.60"/>
    </edge>
    <edge id=":INTERSECTION_3" function="internal">
        <lane id=":INTERSECTION_3_0" index="0" speed="8.00" length="14.19" shape="101.60,-107.20 101.05,-103.35 99.40,-100.60 96.65,-98.95 92.80,-98.40"/>
    </edge>
    <edge id=":INTERSECTION_4" function="internal">
        <lane id=":INTERSECTION_4_0" index="0" speed="6.51" length="9.03" shape="92.80,-101.60 95.25,-101.95 97.00,-103.00 98.05,-104.75 98.40,-107.20"/>
    </edge>
    <edge id=":INTERSECTION_5" function="internal">
        <lane id=":INTERSECTION_5_0" index="0" speed="13.89" length="14.40" shape="92.80,-101.60 107.20,-101.60"/>
    </edge>

    <edge id="-BOTTOM" from="INTERSECTION" to="BOTTOM" priority="-1">
        <lane id="-BOTTOM_0" index="0" speed="13.89" length="592.80" shape="98.40,-107.20 98.40,-700.00"/>
    </edge>
    <edge id="-LEFT" from="INTERSECTION" to="LEFT" priority="-1">
        <lane id="-LEFT_0" index="0" speed="13.89" length="492.80" shape="92.80,-98.40 -400.00,-98.40"/>
    </edge>
    <edge id="-RIGHT_0" from="CENTER" to="INTERSECTION" priority="-1">
        <lane id="-RIGHT_0_0" index="0" speed="13.89" length="5.30" shape="112.50,-98.40 107.20,-98.40"/>
    </edge>
    <edge id="-RIGHT_1" from="RIGHT" to="CENTER" priority="-1">
        <lane id="-RIGHT_1_0" index="0" speed="13.89" length="487.50" shape="600.00,-98.40 112.50,-98.40"/>
    </edge>
    <edge id="BOTTOM" from="BOTTOM" to="INTERSECTION" priority="-1">
        <lane id="BOTTOM_0" index="0" speed="13.89" length="592.80" shape="101.60,-700.00 101.60,-107.20"/>
    </edge>
    <edge id="LEFT" from="LEFT" to="INTERSECTION" priority="-1">
        <lane id="LEFT_0" index="0" speed="13.89" length="492.80" shape="-400.00,-101.60 92.80,-101.60"/>
    </edge>
    <edge id="RIGHT_0" from="INTERSECTION" to="CENTER" priority="-1">
        <lane id="RIGHT_0_0" index="0" speed="13.89" length="5.30" shape="107.20,-101.60 112.50,-101.60"/>
    </edge>
    <edge id="RIGHT_1" from="CENTER" to="RIGHT" priority="-1">
        <lane id="RIGHT_1_0" index="0" speed="13.89" length="487.50" shape="112.50,-101.60 600.00,-101.60"/>
    </edge>

    <junction id="BOTTOM" type="dead_end" x="100.00" y="-700.00" incLanes="-BOTTOM_0" intLanes="" shape="100.00,-700.00 96.80,-700.00 100.00,-700.00"/>
    <junction id="CENTER" type="priority" x="112.50" y="-100.00" incLanes="-RIGHT_1_0 RIGHT_0_0" intLanes=":CENTER_0_0 :CENTER_1_0" shape="112.50,-96.80 112.50,-103.20 112.50,-96.80">
        <request index="0" response="00" foes="00" cont="0"/>
        <request index="1" response="00" foes="00" cont="0"/>
    </junction>
    <junction id="INTERSECTION" type="priority" x="100.00" y="-100.00" incLanes="-RIGHT_0_0 BOTTOM_0 LEFT_0" intLanes=":INTERSECTION_0_0 :INTERSECTION_6_0 :INTERSECTION_2_0 :INTERSECTION_3_0 :INTERSECTION_4_0 :INTERSECTION_5_0" shape="107.20,-96.80 107.20,-103.20 104.98,-103.64 104.20,-104.20 103.64,-104.98 103.31,-105.98 103.20,-107.20 96.80,-107.20 96.36,-104.98 95.80,-104.20 95.02,-103.64 94.02,-103.31 92.80,-103.20 92.80,-96.80">
        <request index="0" response="000000" foes="001000" cont="0"/>
        <request index="1" response="110000" foes="111000" cont="1"/>
        <request index="2" response="100000" foes="100000" cont="0"/>
        <request index="3" response="100011" foes="100011" cont="0"/>
        <request index="4" response="000000" foes="000010" cont="0"/>
        <request index="5" response="000000" foes="001110" cont="0"/>
    </junction>
    <junction id="LEFT" type="dead_end" x="-400.00" y="-100.00" incLanes="-LEFT_0" intLanes="" shape="-400.00,-100.00 -400.00,-96.80 -400.00,-100.00"/>
    <junction id="RIGHT" type="dead_end" x="600.00" y="-100.00" incLanes="RIGHT_1_0" intLanes="" shape="600.00,-100.00 600.00,-103.20 600.00,-100.00"/>

    <junction id=":INTERSECTION_6_0" type="internal" x="103.20" y="-99.04" incLanes=":INTERSECTION_1_0 LEFT_0" intLanes=":INTERSECTION_3_0 :INTERSECTION_4_0 :INTERSECTION_5_0"/>

    <connection from="-RIGHT_0" to="-LEFT" fromLane="0" toLane="0" via=":INTERSECTION_0_0" dir="s" state="M"/>
    <connection from="-RIGHT_0" to="-BOTTOM" fromLane="0" toLane="0" via=":INTERSECTION_1_0" dir="l" state="m"/>
    <connection from="-RIGHT_1" to="-RIGHT_0" fromLane="0" toLane="0" via=":CENTER_0_0" dir="s" state="M"/>
    <connection from="BOTTOM" to="RIGHT_0" fromLane="0" toLane="0" via=":INTERSECTION_2_0" dir="r" state="m"/>
    <connection from="BOTTOM" to="-LEFT" fromLane="0" toLane="0" via=":INTERSECTION_3_0" dir="l" state="m"/>
    <connection from="LEFT" to="-BOTTOM" fromLane="0" toLane="0" via=":INTERSECTION_4_0" dir="r" state="M"/>
    <connection from="LEFT" to="RIGHT_0" fromLane="0" toLane="0" via=":INTERSECTION_5_0" dir="s" state="M"/>
    <connection from="RIGHT_0" to="RIGHT_1" fromLane="0" toLane="0" via=":CENTER_1_0" dir="s" state="M"/>

    <connection from=":CENTER_0" to="-RIGHT_0" fromLane="0" toLane="0" dir="s" state="M"/>
    <connection from=":CENTER_1" to="RIGHT_1" fromLane="0" toLane="0" dir="s" state="M"/>
    <connection from=":INTERSECTION_0" to="-LEFT" fromLane="0" toLane="0" dir="s" state="M"/>
    <connection from=":INTERSECTION_1" to="-BOTTOM" fromLane="0" toLane="0" via=":INTERSECTION_6_0" dir="l" state="m"/>
    <connection from=":INTERSECTION_6" to="-BOTTOM" fromLane="0" toLane="0" dir="l" state="M"/>
    <connection from=":INTERSECTION_2" to="RIGHT_0" fromLane="0" toLane="0" dir="r" state="M"/>
    <connection from=":INTERSECTION_3" to="-LEFT" fromLane="0" toLane="0" dir="l" state="M"/>
    <connection from=":INTERSECTION_4" to="-BOTTOM" fromLane="0" toLane="0" dir="r" state="M"/>
    <connection from=":INTERSECTION_5" to="RIGHT_0" fromLane="0" toLane="0" dir="s" state="M"/>

</net>
