<!-- Generated with ./indyGen.py -r 200 -e 60 -n indy -l 3 -s 36.11 -s 1000 -->
<edges>
    <edge id="edg1" from="node1" to="node2" numLanes="3" speed="1000.000000">
    </edge>
    <edge id="edg2" from="node2" to="node3" numLanes="3" speed="1000.000000" shape="1200.000000,400.000000 1220.905693,398.904379 1241.582338,395.629520 1261.803399,390.211303 1281.347329,382.709092 1300.000000,373.205081 1317.557050,361.803399 1333.826121,348.628965 1348.628965,333.826121 1361.803399,317.557050 1373.205081,300.000000 1382.709092,281.347329 1390.211303,261.803399 1395.629520,241.582338 1398.904379,220.905693 1400.000000,200.000000 1398.904379,179.094307 1395.629520,158.417662 1390.211303,138.196601 1382.709092,118.652671 1373.205081,100.000000 1361.803399,82.442950 1348.628965,66.173879 1333.826121,51.371035 1317.557050,38.196601 1300.000000,26.794919 1281.347329,17.290908 1261.803399,9.788697 1241.582338,4.370480 1220.905693,1.095621 1200.000000,0.000000">
        <lane index="0" length="602.910216"/>
        <lane index="1" length="612.958720"/>
        <lane index="2" length="623.007223"/>
    </edge>
    <edge id="edg3" from="node3" to="node4" numLanes="3" speed="1000.000000">
    </edge>
    <edge id="edg4" from="node4" to="node1" numLanes="3" speed="1000.000000" shape="200.000000,0.000000 179.094307,1.095621 158.417662,4.370480 138.196601,9.788697 118.652671,17.290908 100.000000,26.794919 82.442950,38.196601 66.173879,51.371035 51.371035,66.173879 38.196601,82.442950 26.794919,100.000000 17.290908,118.652671 9.788697,138.196601 4.370480,158.417662 1.095621,179.094307 0.000000,200.000000 1.095621,220.905693 4.370480,241.582338 9.788697,261.803399 17.290908,281.347329 26.794919,300.000000 38.196601,317.557050 51.371035,333.826121 66.173879,348.628965 82.442950,361.803399 100.000000,373.205081 118.652671,382.709092 138.196601,390.211303 158.417662,395.629520 179.094307,398.904379 200.000000,400.000000">
        <lane index="0" length="602.910216"/>
        <lane index="1" length="612.958720"/>
        <lane index="2" length="623.007223"/>
    </edge>
</edges>
