<net junctionCornerDetail="5" limitTurnSpeed="5.500000" version="1.3" ns0:noNamespaceSchemaLocation="http://sumo.dlr.de/xsd/net_file.xsd" xmlns:ns0="http://www.w3.org/2001/XMLSchema-instance">

    <location convBoundary="0.000000,0.000000,1400.000000,400.000000" netOffset="0.000000,0.000000" origBoundary="0.000000,0.000000,1400.000000,400.000000" projParameter="!" />

    <edge function="internal" id=":node1_0">
        <lane id=":node1_0_0" index="0" length="0.256710" shape="200.167647,391.997807 200.251385,392.000000" speed="1000.000000" />
        <lane id=":node1_0_1" index="1" length="0.256710" shape="200.000172,395.193422 200.251385,395.200000" speed="1000.000000" />
        <lane id=":node1_0_2" index="2" length="0.256710" shape="199.832697,398.389036 200.251385,398.400000" speed="1000.000000" />
    </edge>
    <edge function="internal" id=":node2_0">
        <lane id=":node2_0_0" index="0" length="0.256710" shape="1199.748615,392.000000 1199.832353,391.997807" speed="1000.000000" />
        <lane id=":node2_0_1" index="1" length="0.256710" shape="1199.748615,395.200000 1199.999828,395.193422" speed="1000.000000" />
        <lane id=":node2_0_2" index="2" length="0.256710" shape="1199.748615,398.400000 1200.167303,398.389036" speed="1000.000000" />
    </edge>
    <edge function="internal" id=":node3_0">
        <lane id=":node3_0_0" index="0" length="0.256710" shape="1199.832353,8.002193 1199.748615,8.000000" speed="1000.000000" />
        <lane id=":node3_0_1" index="1" length="0.256710" shape="1199.999828,4.806578 1199.748615,4.800000" speed="1000.000000" />
        <lane id=":node3_0_2" index="2" length="0.256710" shape="1200.167303,1.610964 1199.748615,1.600000" speed="1000.000000" />
    </edge>
    <edge function="internal" id=":node4_0">
        <lane id=":node4_0_0" index="0" length="0.256710" shape="200.251385,8.000000 200.167647,8.002193" speed="1000.000000" />
        <lane id=":node4_0_1" index="1" length="0.256710" shape="200.251385,4.800000 200.000172,4.806578" speed="1000.000000" />
        <lane id=":node4_0_2" index="2" length="0.256710" shape="200.251385,1.600000 199.832697,1.610964" speed="1000.000000" />
    </edge>

    <edge from="node1" id="edg1" priority="-1" to="node2">
        <lane id="edg1_0" index="0" length="999.497230" shape="200.251385,392.000000 1199.748615,392.000000" speed="1000.000000" />
        <lane id="edg1_1" index="1" length="999.497230" shape="200.251385,395.200000 1199.748615,395.200000" speed="1000.000000" />
        <lane id="edg1_2" index="2" length="999.497230" shape="200.251385,398.400000 1199.748615,398.400000" speed="1000.000000" />
    </edge>
    <edge from="node2" id="edg2" priority="-1" shape="1200.000000,400.000000 1220.905693,398.904379 1241.582338,395.629520 1261.803399,390.211303 1281.347329,382.709092 1300.000000,373.205081 1317.557050,361.803399 1333.826121,348.628965 1348.628965,333.826121 1361.803399,317.557050 1373.205081,300.000000 1382.709092,281.347329 1390.211303,261.803399 1395.629520,241.582338 1398.904379,220.905693 1400.000000,200.000000 1398.904379,179.094307 1395.629520,158.417662 1390.211303,138.196601 1382.709092,118.652671 1373.205081,100.000000 1361.803399,82.442950 1348.628965,66.173879 1333.826121,51.371035 1317.557050,38.196601 1300.000000,26.794919 1281.347329,17.290908 1261.803399,9.788697 1241.582338,4.370480 1220.905693,1.095621 1200.000000,0.000000" to="node3">
        <lane id="edg2_0" index="0" length="602.910215919" shape="1199.832353,391.997807 1220.068318,390.937285 1239.916762,387.793600 1259.327871,382.592409 1278.088970,375.390699 1295.994510,366.267370 1312.848315,355.322381 1328.465730,342.675648 1342.675648,328.465730 1355.322381,312.848315 1366.267370,295.994510 1375.390699,278.088970 1382.592409,259.327871 1387.793600,239.916762 1390.937285,220.068318 1391.989021,200.000000 1390.937285,179.931682 1387.793600,160.083238 1382.592409,140.672129 1375.390699,121.911030 1366.267370,104.005490 1355.322381,87.151685 1342.675648,71.534270 1328.465730,57.324352 1312.848315,44.677619 1295.994510,33.732630 1278.088970,24.609301 1259.327871,17.407591 1239.916762,12.206400 1220.068318,9.062715 1199.832353,8.002193" speed="1000.000000" />
        <lane id="edg2_1" index="1" length="612.958719517" shape="1199.999828,395.193422 1220.403268,394.124123 1240.582992,390.927968 1260.318082,385.639967 1279.392314,378.318056 1297.596706,369.042454 1314.731809,357.914788 1330.609886,345.056975 1345.056975,330.609886 1357.914788,314.731809 1369.042454,297.596706 1378.318056,279.392314 1385.639967,260.318082 1390.927968,240.582992 1394.124123,220.403268 1395.193413,200.000000 1394.124123,179.596732 1390.927968,159.417008 1385.639967,139.681918 1378.318056,120.607686 1369.042454,102.403294 1357.914788,85.268191 1345.056975,69.390114 1330.609886,54.943025 1314.731809,42.085212 1297.596706,30.957546 1279.392314,21.681944 1260.318082,14.360033 1240.582992,9.072032 1220.403268,5.875877 1199.999828,4.806578" speed="1000.000000" />
        <lane id="edg2_2" index="2" length="623.007223116" shape="1200.167303,398.389036 1220.738218,397.310960 1241.249223,394.062336 1261.308293,388.687524 1280.695657,381.245413 1299.198902,371.817539 1316.615303,360.507195 1332.754043,347.438302 1347.438302,332.754043 1360.507195,316.615303 1371.817539,299.198902 1381.245413,280.695657 1388.687524,261.308293 1394.062336,241.249223 1397.310960,220.738218 1398.397804,200.000000 1397.310960,179.261782 1394.062336,158.750777 1388.687524,138.691707 1381.245413,119.304343 1371.817539,100.801098 1360.507195,83.384697 1347.438302,67.245957 1332.754043,52.561698 1316.615303,39.492805 1299.198902,28.182461 1280.695657,18.754587 1261.308293,11.312476 1241.249223,5.937664 1220.738218,2.689040 1200.167303,1.610964" speed="1000.000000" />
    </edge>
    <edge from="node3" id="edg3" priority="-1" to="node4">
        <lane id="edg3_0" index="0" length="999.497230" shape="1199.748615,8.000000 200.251385,8.000000" speed="1000.000000" />
        <lane id="edg3_1" index="1" length="999.497230" shape="1199.748615,4.800000 200.251385,4.800000" speed="1000.000000" />
        <lane id="edg3_2" index="2" length="999.497230" shape="1199.748615,1.600000 200.251385,1.600000" speed="1000.000000" />
    </edge>
    <edge from="node4" id="edg4" priority="-1" shape="200.000000,0.000000 179.094307,1.095621 158.417662,4.370480 138.196601,9.788697 118.652671,17.290908 100.000000,26.794919 82.442950,38.196601 66.173879,51.371035 51.371035,66.173879 38.196601,82.442950 26.794919,100.000000 17.290908,118.652671 9.788697,138.196601 4.370480,158.417662 1.095621,179.094307 0.000000,200.000000 1.095621,220.905693 4.370480,241.582338 9.788697,261.803399 17.290908,281.347329 26.794919,300.000000 38.196601,317.557050 51.371035,333.826121 66.173879,348.628965 82.442950,361.803399 100.000000,373.205081 118.652671,382.709092 138.196601,390.211303 158.417662,395.629520 179.094307,398.904379 200.000000,400.000000" to="node1">
        <lane id="edg4_0" index="0" length="602.910215919" shape="200.167647,8.002193 179.931682,9.062715 160.083238,12.206400 140.672129,17.407591 121.911030,24.609301 104.005490,33.732630 87.151685,44.677619 71.534270,57.324352 57.324352,71.534270 44.677619,87.151685 33.732630,104.005490 24.609301,121.911030 17.407591,140.672129 12.206400,160.083238 9.062715,179.931682 8.010979,200.000000 9.062715,220.068318 12.206400,239.916762 17.407591,259.327871 24.609301,278.088970 33.732630,295.994510 44.677619,312.848315 57.324352,328.465730 71.534270,342.675648 87.151685,355.322381 104.005490,366.267370 121.911030,375.390699 140.672129,382.592409 160.083238,387.793600 179.931682,390.937285 200.167647,391.997807" speed="1000.000000" />
        <lane id="edg4_1" index="1" length="612.958719517" shape="200.000172,4.806578 179.596732,5.875877 159.417008,9.072032 139.681918,14.360033 120.607686,21.681944 102.403294,30.957546 85.268191,42.085212 69.390114,54.943025 54.943025,69.390114 42.085212,85.268191 30.957546,102.403294 21.681944,120.607686 14.360033,139.681918 9.072032,159.417008 5.875877,179.596732 4.806587,200.000000 5.875877,220.403268 9.072032,240.582992 14.360033,260.318082 21.681944,279.392314 30.957546,297.596706 42.085212,314.731809 54.943025,330.609886 69.390114,345.056975 85.268191,357.914788 102.403294,369.042454 120.607686,378.318056 139.681918,385.639967 159.417008,390.927968 179.596732,394.124123 200.000172,395.193422" speed="1000.000000" />
        <lane id="edg4_2" index="2" length="623.007223116" shape="199.832697,1.610964 179.261782,2.689040 158.750777,5.937664 138.691707,11.312476 119.304343,18.754587 100.801098,28.182461 83.384697,39.492805 67.245957,52.561698 52.561698,67.245957 39.492805,83.384697 28.182461,100.801098 18.754587,119.304343 11.312476,138.691707 5.937664,158.750777 2.689040,179.261782 1.602196,200.000000 2.689040,220.738218 5.937664,241.249223 11.312476,261.308293 18.754587,280.695657 28.182461,299.198902 39.492805,316.615303 52.561698,332.754043 67.245957,347.438302 83.384697,360.507195 100.801098,371.817539 119.304343,381.245413 138.691707,388.687524 158.750777,394.062336 179.261782,397.310960 199.832697,398.389036" speed="1000.000000" />
    </edge>

    <junction id="node1" incLanes="edg4_0 edg4_1 edg4_2" intLanes=":node1_0_0 :node1_0_1 :node1_0_2" shape="200.251385,400.000000 200.251385,390.400000 199.748960,399.986844" type="priority" x="200.000000" y="400.000000">
        <request cont="0" foes="000" index="0" response="000" />
        <request cont="0" foes="000" index="1" response="000" />
        <request cont="0" foes="000" index="2" response="000" />
    </junction>
    <junction id="node2" incLanes="edg1_0 edg1_1 edg1_2" intLanes=":node2_0_0 :node2_0_1 :node2_0_2" shape="1200.251040,399.986844 1199.748615,390.400000 1199.748615,400.000000" type="priority" x="1200.000000" y="400.000000">
        <request cont="0" foes="000" index="0" response="000" />
        <request cont="0" foes="000" index="1" response="000" />
        <request cont="0" foes="000" index="2" response="000" />
    </junction>
    <junction id="node3" incLanes="edg2_0 edg2_1 edg2_2" intLanes=":node3_0_0 :node3_0_1 :node3_0_2" shape="1199.748615,9.600000 1200.251040,0.013156 1199.748615,0.000000" type="priority" x="1200.000000" y="0.000000">
        <request cont="0" foes="000" index="0" response="000" />
        <request cont="0" foes="000" index="1" response="000" />
        <request cont="0" foes="000" index="2" response="000" />
    </junction>
    <junction id="node4" incLanes="edg3_0 edg3_1 edg3_2" intLanes=":node4_0_0 :node4_0_1 :node4_0_2" shape="200.251385,9.600000 200.251385,0.000000 199.748960,0.013156" type="priority" x="200.000000" y="0.000000">
        <request cont="0" foes="000" index="0" response="000" />
        <request cont="0" foes="000" index="1" response="000" />
        <request cont="0" foes="000" index="2" response="000" />
    </junction>

    <connection dir="s" from="edg1" fromLane="0" state="M" to="edg2" toLane="0" via=":node2_0_0" />
    <connection dir="s" from="edg1" fromLane="1" state="M" to="edg2" toLane="1" via=":node2_0_1" />
    <connection dir="s" from="edg1" fromLane="2" state="M" to="edg2" toLane="2" via=":node2_0_2" />
    <connection dir="s" from="edg2" fromLane="0" state="M" to="edg3" toLane="0" via=":node3_0_0" />
    <connection dir="s" from="edg2" fromLane="1" state="M" to="edg3" toLane="1" via=":node3_0_1" />
    <connection dir="s" from="edg2" fromLane="2" state="M" to="edg3" toLane="2" via=":node3_0_2" />
    <connection dir="s" from="edg3" fromLane="0" state="M" to="edg4" toLane="0" via=":node4_0_0" />
    <connection dir="s" from="edg3" fromLane="1" state="M" to="edg4" toLane="1" via=":node4_0_1" />
    <connection dir="s" from="edg3" fromLane="2" state="M" to="edg4" toLane="2" via=":node4_0_2" />
    <connection dir="s" from="edg4" fromLane="0" state="M" to="edg1" toLane="0" via=":node1_0_0" />
    <connection dir="s" from="edg4" fromLane="1" state="M" to="edg1" toLane="1" via=":node1_0_1" />
    <connection dir="s" from="edg4" fromLane="2" state="M" to="edg1" toLane="2" via=":node1_0_2" />

    <connection dir="s" from=":node1_0" fromLane="0" state="M" to="edg1" toLane="0" />
    <connection dir="s" from=":node1_0" fromLane="1" state="M" to="edg1" toLane="1" />
    <connection dir="s" from=":node1_0" fromLane="2" state="M" to="edg1" toLane="2" />
    <connection dir="s" from=":node2_0" fromLane="0" state="M" to="edg2" toLane="0" />
    <connection dir="s" from=":node2_0" fromLane="1" state="M" to="edg2" toLane="1" />
    <connection dir="s" from=":node2_0" fromLane="2" state="M" to="edg2" toLane="2" />
    <connection dir="s" from=":node3_0" fromLane="0" state="M" to="edg3" toLane="0" />
    <connection dir="s" from=":node3_0" fromLane="1" state="M" to="edg3" toLane="1" />
    <connection dir="s" from=":node3_0" fromLane="2" state="M" to="edg3" toLane="2" />
    <connection dir="s" from=":node4_0" fromLane="0" state="M" to="edg4" toLane="0" />
    <connection dir="s" from=":node4_0" fromLane="1" state="M" to="edg4" toLane="1" />
    <connection dir="s" from=":node4_0" fromLane="2" state="M" to="edg4" toLane="2" />

</net>