<!-- Generated with ./indyGen.py -r 200 -e 60 -n indy -l 3 -s 36.11 -s 1000 -->
<nodes>
    <node id="node1" x="200.000000" y="400.000000"/>
    <node id="node2" x="1200.000000" y="400.000000"/>
    <node id="node3" x="1200.000000" y="0.000000"/>
    <node id="node4" x="200.000000" y="0.000000"/>
</nodes>
