<net junctionCornerDetail="5" limitTurnSpeed="5.500000" version="1.3" ns0:noNamespaceSchemaLocation="http://sumo.dlr.de/xsd/net_file.xsd" xmlns:ns0="http://www.w3.org/2001/XMLSchema-instance">

    <location convBoundary="0.000000,0.000000,400.000000,400.000000" netOffset="200.000000,200.000000" origBoundary="-200.000000,-200.000000,200.000000,200.000000" projParameter="!" />

    <edge function="internal" id=":node1_0">
        <lane id=":node1_0_0" index="0" length="0.299995" shape="229.500640,387.231896 229.795942,387.185116" speed="36.000000" />
        <lane id=":node1_0_1" index="1" length="0.299995" shape="230.000823,390.392563 230.297123,390.345625" speed="36.000000" />
        <lane id=":node1_0_2" index="2" length="0.299995" shape="230.501006,393.553231 230.798304,393.506134" speed="36.000000" />
    </edge>
    <edge function="internal" id=":node2_0">
        <lane id=":node2_0_0" index="0" length="0.299995" shape="170.499360,12.768104 170.204058,12.814884" speed="36.000000" />
        <lane id=":node2_0_1" index="1" length="0.299995" shape="169.999177,9.607437 169.702877,9.654375" speed="36.000000" />
        <lane id=":node2_0_2" index="2" length="0.299995" shape="169.498994,6.446769 169.201696,6.493866" speed="36.000000" />
    </edge>

    <edge from="node1" id="edg1" length="625.737860" priority="-1" shape="230.900000,395.110000 261.800000,390.210000 317.560000,361.800000 361.800000,317.560000 390.210000,261.800000 400.000000,200.000000 390.210000,138.200000 361.800000,82.440000 317.560000,38.200000 261.800000,9.790000 200.000000,0.000000 169.100000,4.890000" to="node2">
        <lane id="edg1_0" index="0" length="600.708345754" shape="229.795942,387.185116 259.296431,382.507045 312.799150,355.247141 355.247141,312.799150 382.506751,259.297008 391.900242,200.000000 382.506751,140.702992 355.247141,87.200850 312.799150,44.752859 259.297008,17.493249 199.999361,8.099657 170.499360,12.768104" speed="36.000000" />
        <lane id="edg1_1" index="1" length="610.720151517" shape="230.297123,390.345625 260.297859,385.588227 314.703490,357.868285 357.868285,314.703490 385.588051,260.298205 395.140145,200.000000 385.588051,139.701795 357.868285,85.296510 314.703490,42.131715 260.298205,14.411949 199.999616,4.859794 169.999177,9.607437" speed="36.000000" />
        <lane id="edg1_2" index="2" length="620.73195728" shape="230.798304,393.506134 261.299286,388.669409 316.607830,360.489428 360.489428,316.607830 388.669350,261.299402 398.380048,200.000000 388.669350,138.700598 360.489428,83.392170 316.607830,39.510572 261.299402,11.330650 199.999872,1.619931 169.498994,6.446769" speed="36.000000" />
    </edge>
    <edge from="node2" id="edg2" length="625.737860" priority="-1" shape="169.100000,4.890000 138.200000,9.790000 82.440000,38.200000 38.200000,82.440000 9.790000,138.200000 0.000000,200.000000 9.790000,261.800000 38.200000,317.560000 82.440000,361.800000 138.200000,390.210000 200.000000,400.000000 230.900000,395.110000" to="node1">
        <lane id="edg2_0" index="0" length="600.708345754" shape="170.204058,12.814884 140.703569,17.492955 87.200850,44.752859 44.752859,87.200850 17.493249,140.702992 8.099758,200.000000 17.493249,259.297008 44.752859,312.799150 87.200850,355.247141 140.702992,382.506751 200.000639,391.900343 229.500640,387.231896" speed="36.000000" />
        <lane id="edg2_1" index="1" length="610.720151517" shape="169.702877,9.654375 139.702141,14.411773 85.296510,42.131715 42.131715,85.296510 14.411949,139.701795 4.859855,200.000000 14.411949,260.298205 42.131715,314.703490 85.296510,357.868285 139.701795,385.588051 200.000384,395.140206 230.000823,390.392563" speed="36.000000" />
        <lane id="edg2_2" index="2" length="620.73195728" shape="169.201696,6.493866 138.700714,11.330591 83.392170,39.510572 39.510572,83.392170 11.330650,138.700598 1.619952,200.000000 11.330650,261.299402 39.510572,316.607830 83.392170,360.489428 138.700598,388.669350 200.000128,398.380069 230.501006,393.553231" speed="36.000000" />
    </edge>

    <junction id="node1" incLanes="edg2_0 edg2_1 edg2_2" intLanes=":node1_0_0 :node1_0_1 :node1_0_2" shape="231.048895,395.086389 229.545352,385.604862 229.250548,385.651563 230.751098,395.133564" type="priority" x="230.900000" y="395.110000">
        <request cont="0" foes="000" index="0" response="000" />
        <request cont="0" foes="000" index="1" response="000" />
        <request cont="0" foes="000" index="2" response="000" />
    </junction>
    <junction id="node2" incLanes="edg1_0 edg1_1 edg1_2" intLanes=":node2_0_0 :node2_0_1 :node2_0_2" shape="170.749452,14.348437 169.248902,4.866436 168.951105,4.913611 170.454648,14.395138" type="priority" x="169.100000" y="4.890000">
        <request cont="0" foes="000" index="0" response="000" />
        <request cont="0" foes="000" index="1" response="000" />
        <request cont="0" foes="000" index="2" response="000" />
    </junction>

    <connection dir="s" from="edg1" fromLane="0" state="M" to="edg2" toLane="0" via=":node2_0_0" />
    <connection dir="s" from="edg1" fromLane="1" state="M" to="edg2" toLane="1" via=":node2_0_1" />
    <connection dir="s" from="edg1" fromLane="2" state="M" to="edg2" toLane="2" via=":node2_0_2" />
    <connection dir="s" from="edg2" fromLane="0" state="M" to="edg1" toLane="0" via=":node1_0_0" />
    <connection dir="s" from="edg2" fromLane="1" state="M" to="edg1" toLane="1" via=":node1_0_1" />
    <connection dir="s" from="edg2" fromLane="2" state="M" to="edg1" toLane="2" via=":node1_0_2" />

    <connection dir="s" from=":node1_0" fromLane="0" state="M" to="edg1" toLane="0" />
    <connection dir="s" from=":node1_0" fromLane="1" state="M" to="edg1" toLane="1" />
    <connection dir="s" from=":node1_0" fromLane="2" state="M" to="edg1" toLane="2" />
    <connection dir="s" from=":node2_0" fromLane="0" state="M" to="edg2" toLane="0" />
    <connection dir="s" from=":node2_0" fromLane="1" state="M" to="edg2" toLane="1" />
    <connection dir="s" from=":node2_0" fromLane="2" state="M" to="edg2" toLane="2" />

</net>