<net version="0.27" ns0:noNamespaceSchemaLocation="http://sumo.dlr.de/xsd/net_file.xsd" xmlns:ns0="http://www.w3.org/2001/XMLSchema-instance">

    <location convBoundary="0.000000,0.000000,400.000000,400.000000" netOffset="200.000000,200.000000" origBoundary="-200.000000,-200.000000,200.000000,200.000000" projParameter="!" />

    <edge function="internal" id=":node1_0">
        <lane id=":node1_0_0" index="0" length="0.299995" shape="229.461540,386.984973 229.756811,386.938198" speed="36.000000" />
        <lane id=":node1_0_1" index="1" length="0.299995" shape="229.977353,390.244411 230.273654,390.197473" speed="36.000000" />
        <lane id=":node1_0_2" index="2" length="0.299995" shape="230.493167,393.503849 230.790497,393.456748" speed="36.000000" />
    </edge>
    <edge function="internal" id=":node2_0">
        <lane id=":node2_0_0" index="0" length="0.299995" shape="170.538460,13.015027 170.243189,13.061802" speed="36.000000" />
        <lane id=":node2_0_1" index="1" length="0.299995" shape="170.022647,9.755589 169.726346,9.802527" speed="36.000000" />
        <lane id=":node2_0_2" index="2" length="0.299995" shape="169.506833,6.496151 169.209503,6.543252" speed="36.000000" />
    </edge>

    <edge from="node1" id="edg1" length="625.737860" priority="-1" shape="230.900000,395.110000 261.800000,390.210000 317.560000,361.800000 361.800000,317.560000 390.210000,261.800000 400.000000,200.000000 390.210000,138.200000 361.800000,82.440000 317.560000,38.200000 261.800000,9.790000 200.000000,0.000000 169.100000,4.890000" to="node2">
        <lane id="edg1_0" index="0" length="600.708345754" shape="229.756811,386.938198 259.218195,382.266328 312.650374,355.042364 355.042364,312.650374 382.266025,259.218790 391.647124,200.000000 382.266025,140.781210 355.042364,87.349626 312.650374,44.957636 259.218790,17.733975 199.999341,8.352771 170.538460,13.015027" speed="36.000000" />
        <lane id="edg1_1" index="1" length="610.720151517" shape="230.273654,390.197473 260.250917,385.443797 314.614224,357.745419 357.745419,314.614224 385.443615,260.251274 394.988275,200.000000 385.443615,139.748726 357.745419,85.385776 314.614224,42.254581 260.251274,14.556385 199.999604,5.011663 170.022647,9.755589" speed="36.000000" />
        <lane id="edg1_2" index="2" length="620.73195728" shape="230.790497,393.456748 261.283639,388.621266 316.578075,360.448473 360.448473,316.578075 388.621205,261.283758 398.329425,200.000000 388.621205,138.716242 360.448473,83.421925 316.578075,39.551527 261.283758,11.378795 199.999868,1.670554 169.506833,6.496151" speed="36.000000" />
    </edge>
    <edge from="node2" id="edg2" length="625.737860" priority="-1" shape="169.100000,4.890000 138.200000,9.790000 82.440000,38.200000 38.200000,82.440000 9.790000,138.200000 0.000000,200.000000 9.790000,261.800000 38.200000,317.560000 82.440000,361.800000 138.200000,390.210000 200.000000,400.000000 230.900000,395.110000" to="node1">
        <lane id="edg2_0" index="0" length="600.708345754" shape="170.243189,13.061802 140.781805,17.733672 87.349626,44.957636 44.957636,87.349626 17.733975,140.781210 8.352876,200.000000 17.733975,259.218790 44.957636,312.650374 87.349626,355.042364 140.781210,382.266025 200.000659,391.647229 229.461540,386.984973" speed="36.000000" />
        <lane id="edg2_1" index="1" length="610.720151517" shape="169.726346,9.802527 139.749083,14.556203 85.385776,42.254581 42.254581,85.385776 14.556385,139.748726 5.011725,200.000000 14.556385,260.251274 42.254581,314.614224 85.385776,357.745419 139.748726,385.443615 200.000396,394.988337 229.977353,390.244411" speed="36.000000" />
        <lane id="edg2_2" index="2" length="620.73195728" shape="169.209503,6.543252 138.716361,11.378734 83.421925,39.551527 39.551527,83.421925 11.378795,138.716242 1.670575,200.000000 11.378795,261.283758 39.551527,316.578075 83.421925,360.448473 138.716242,388.621205 200.000132,398.329446 230.493167,393.503849" speed="36.000000" />
    </edge>

    <junction id="node1" incLanes="edg2_0 edg2_1 edg2_2" intLanes=":node1_0_0 :node1_0_1 :node1_0_2" shape="231.041087,395.037002 229.506220,385.357943 229.211448,385.404639 230.743259,395.084182" type="priority" x="230.900000" y="395.110000">
        <request cont="0" foes="000" index="0" response="000" />
        <request cont="0" foes="000" index="1" response="000" />
        <request cont="0" foes="000" index="2" response="000" />
    </junction>
    <junction id="node2" incLanes="edg1_0 edg1_1 edg1_2" intLanes=":node2_0_0 :node2_0_1 :node2_0_2" shape="170.788552,14.595361 169.256741,4.915818 168.958913,4.962998 170.493780,14.642057" type="priority" x="169.100000" y="4.890000">
        <request cont="0" foes="000" index="0" response="000" />
        <request cont="0" foes="000" index="1" response="000" />
        <request cont="0" foes="000" index="2" response="000" />
    </junction>

    <connection dir="s" from="edg1" fromLane="0" state="M" to="edg2" toLane="0" via=":node2_0_0" />
    <connection dir="s" from="edg1" fromLane="1" state="M" to="edg2" toLane="1" via=":node2_0_1" />
    <connection dir="s" from="edg1" fromLane="2" state="M" to="edg2" toLane="2" via=":node2_0_2" />
    <connection dir="s" from="edg2" fromLane="0" state="M" to="edg1" toLane="0" via=":node1_0_0" />
    <connection dir="s" from="edg2" fromLane="1" state="M" to="edg1" toLane="1" via=":node1_0_1" />
    <connection dir="s" from="edg2" fromLane="2" state="M" to="edg1" toLane="2" via=":node1_0_2" />

    <connection dir="s" from=":node1_0" fromLane="0" state="M" to="edg1" toLane="0" />
    <connection dir="s" from=":node1_0" fromLane="1" state="M" to="edg1" toLane="1" />
    <connection dir="s" from=":node1_0" fromLane="2" state="M" to="edg1" toLane="2" />
    <connection dir="s" from=":node2_0" fromLane="0" state="M" to="edg2" toLane="0" />
    <connection dir="s" from=":node2_0" fromLane="1" state="M" to="edg2" toLane="1" />
    <connection dir="s" from=":node2_0" fromLane="2" state="M" to="edg2" toLane="2" />

</net>