<?xml version="1.0" encoding="UTF-8"?>

<!-- generated on Tue Mar 23 14:46:43 2021 by Eclipse SUMO netconvert Version 1.8.0
<configuration xmlns:xsi="http://www.w3.org/2001/XMLSchema-instance" xsi:noNamespaceSchemaLocation="http://sumo.dlr.de/xsd/netconvertConfiguration.xsd">

    <input>
        <node-files value="ring.nod.xml"/>
        <edge-files value="ring.edg.xml"/>
    </input>

    <output>
        <precision value="6"/>
        <output-file value="ring.net.xml"/>
    </output>

    <report>
        <aggregate-warnings value="5"/>
    </report>

</configuration>
-->

<net version="1.6" junctionCornerDetail="5" limitTurnSpeed="5.500000" xmlns:xsi="http://www.w3.org/2001/XMLSchema-instance" xsi:noNamespaceSchemaLocation="http://sumo.dlr.de/xsd/net_file.xsd">

    <location netOffset="200.000000,200.000000" convBoundary="0.000000,0.000000,400.000000,400.000000" origBoundary="-200.000000,-200.000000,200.000000,200.000000" projParameter="!"/>

    <edge id=":node1_0" function="internal">
        <lane id=":node1_0_0" index="0" speed="36.000000" length="0.100000" shape="215.012781,390.794626 215.013179,390.794594"/>
        <lane id=":node1_0_1" index="1" speed="36.000000" length="0.100000" shape="215.263668,393.984775 215.263907,393.984757"/>
        <lane id=":node1_0_2" index="2" speed="36.000000" length="0.100000" shape="215.514556,397.174925 215.514636,397.174919"/>
    </edge>
    <edge id=":node2_0" function="internal">
        <lane id=":node2_0_0" index="0" speed="36.000000" length="0.100000" shape="184.987219,9.205374 184.986821,9.205406"/>
        <lane id=":node2_0_1" index="1" speed="36.000000" length="0.100000" shape="184.736332,6.015225 184.736093,6.015243"/>
        <lane id=":node2_0_2" index="2" speed="36.000000" length="0.100000" shape="184.485444,2.825075 184.485364,2.825081"/>
    </edge>

    <edge id="edg1" from="node1" to="node2" priority="-1" length="627.672766" shape="215.640000,398.770000 231.290000,397.540000 261.800000,390.210000 290.800000,378.200000 317.560000,361.800000 341.420000,341.420000 361.800000,317.560000 378.200000,290.800000 390.210000,261.800000 397.540000,231.290000 400.000000,200.000000 397.540000,168.710000 390.210000,138.200000 378.200000,109.200000 361.800000,82.440000 341.420000,58.580000 317.560000,38.200000 290.800000,21.800000 261.800000,9.790000 231.290000,2.460000 200.000000,0.000000 184.360000,1.230000">
        <lane id="edg1_0" index="0" speed="36.000000" length="627.672766" shape="215.013179,390.794594 230.034426,389.614011 259.319873,382.578208 287.156920,371.049831 312.842921,355.308037 335.745671,335.745671 355.308037,312.842921 371.049831,287.156920 382.578208,259.319873 389.614034,230.034329 391.975314,200.000000 389.614034,169.965671 382.578208,140.680127 371.049831,112.843080 355.308037,87.157079 335.745671,64.254329 312.842921,44.691963 287.156920,28.950169 259.319873,17.421792 230.034329,10.385966 200.000100,8.024694 184.987219,9.205374"/>
        <lane id="edg1_1" index="1" speed="36.000000" length="627.672766" shape="215.263907,393.984757 230.536656,392.784406 260.311924,385.630925 288.614152,373.909899 314.729753,357.904822 338.015403,338.015403 357.904822,314.729753 373.909899,288.614152 385.630925,260.311924 392.784420,230.536597 395.185188,200.000000 392.784420,169.463403 385.630925,139.688076 373.909899,111.385848 357.904822,85.270247 338.015403,61.984597 314.729753,42.095178 288.614152,26.090101 260.311924,14.369075 230.536597,7.215580 200.000060,4.814816 184.736332,6.015225"/>
        <lane id="edg1_2" index="2" speed="36.000000" length="627.672766" shape="215.514636,397.174919 231.038885,395.954802 261.303975,388.683642 290.071384,376.769966 316.616584,360.501607 340.285134,340.285134 360.501607,316.616584 376.769966,290.071384 388.683642,261.303975 395.954807,231.038866 398.395063,200.000000 395.954807,168.961134 388.683642,138.696025 376.769966,109.928616 360.501607,83.383416 340.285134,59.714866 316.616584,39.498393 290.071384,23.230034 261.303975,11.316358 231.038866,4.045193 200.000020,1.604939 184.485444,2.825075"/>
    </edge>
    <edge id="edg2" from="node2" to="node1" priority="-1" length="627.672766" shape="184.360000,1.230000 168.710000,2.460000 138.200000,9.790000 109.200000,21.800000 82.440000,38.200000 58.580000,58.580000 38.200000,82.440000 21.800000,109.200000 9.790000,138.200000 2.460000,168.710000 0.000000,200.000000 2.460000,231.290000 9.790000,261.800000 21.800000,290.800000 38.200000,317.560000 58.580000,341.420000 82.440000,361.800000 109.200000,378.200000 138.200000,390.210000 168.710000,397.540000 200.000000,400.000000 215.640000,398.770000">
        <lane id="edg2_0" index="0" speed="36.000000" length="627.672766" shape="184.986821,9.205406 169.965574,10.385989 140.680127,17.421792 112.843080,28.950169 87.157079,44.691963 64.254329,64.254329 44.691963,87.157079 28.950169,112.843080 17.421792,140.680127 10.385966,169.965671 8.024686,200.000000 10.385966,230.034329 17.421792,259.319873 28.950169,287.156920 44.691963,312.842921 64.254329,335.745671 87.157079,355.308037 112.843080,371.049831 140.680127,382.578208 169.965671,389.614034 199.999900,391.975306 215.012781,390.794626"/>
        <lane id="edg2_1" index="1" speed="36.000000" length="627.672766" shape="184.736093,6.015243 169.463344,7.215594 139.688076,14.369075 111.385848,26.090101 85.270247,42.095178 61.984597,61.984597 42.095178,85.270247 26.090101,111.385848 14.369075,139.688076 7.215580,169.463403 4.814812,200.000000 7.215580,230.536597 14.369075,260.311924 26.090101,288.614152 42.095178,314.729753 61.984597,338.015403 85.270247,357.904822 111.385848,373.909899 139.688076,385.630925 169.463403,392.784420 199.999940,395.185184 215.263668,393.984775"/>
        <lane id="edg2_2" index="2" speed="36.000000" length="627.672766" shape="184.485364,2.825081 168.961115,4.045198 138.696025,11.316358 109.928616,23.230034 83.383416,39.498393 59.714866,59.714866 39.498393,83.383416 23.230034,109.928616 11.316358,138.696025 4.045193,168.961134 1.604937,200.000000 4.045193,231.038866 11.316358,261.303975 23.230034,290.071384 39.498393,316.616584 59.714866,340.285134 83.383416,360.501607 109.928616,376.769966 138.696025,388.683642 168.961134,395.954807 199.999980,398.395061 215.514556,397.174925"/>
    </edge>

    <junction id="node1" type="priority" x="215.640000" y="398.770000" incLanes="edg2_0 edg2_1 edg2_2" intLanes=":node1_0_0 :node1_0_1 :node1_0_2" shape="215.640179,398.769986 214.887994,389.199499 215.639821,398.770014">
        <request index="0" response="000" foes="000" cont="0"/>
        <request index="1" response="000" foes="000" cont="0"/>
        <request index="2" response="000" foes="000" cont="0"/>
    </junction>
    <junction id="node2" type="priority" x="184.360000" y="1.230000" incLanes="edg1_0 edg1_1 edg1_2" intLanes=":node2_0_0 :node2_0_1 :node2_0_2" shape="185.112842,10.800435 184.360179,1.229986 185.112006,10.800501">
        <request index="0" response="000" foes="000" cont="0"/>
        <request index="1" response="000" foes="000" cont="0"/>
        <request index="2" response="000" foes="000" cont="0"/>
    </junction>

    <connection from="edg1" to="edg2" fromLane="0" toLane="0" via=":node2_0_0" dir="s" state="M"/>
    <connection from="edg1" to="edg2" fromLane="1" toLane="1" via=":node2_0_1" dir="s" state="M"/>
    <connection from="edg1" to="edg2" fromLane="2" toLane="2" via=":node2_0_2" dir="s" state="M"/>
    <connection from="edg2" to="edg1" fromLane="0" toLane="0" via=":node1_0_0" dir="s" state="M"/>
    <connection from="edg2" to="edg1" fromLane="1" toLane="1" via=":node1_0_1" dir="s" state="M"/>
    <connection from="edg2" to="edg1" fromLane="2" toLane="2" via=":node1_0_2" dir="s" state="M"/>

    <connection from=":node1_0" to="edg1" fromLane="0" toLane="0" dir="s" state="M"/>
    <connection from=":node1_0" to="edg1" fromLane="1" toLane="1" dir="s" state="M"/>
    <connection from=":node1_0" to="edg1" fromLane="2" toLane="2" dir="s" state="M"/>
    <connection from=":node2_0" to="edg2" fromLane="0" toLane="0" dir="s" state="M"/>
    <connection from=":node2_0" to="edg2" fromLane="1" toLane="1" dir="s" state="M"/>
    <connection from=":node2_0" to="edg2" fromLane="2" toLane="2" dir="s" state="M"/>

</net>
