<?xml version="1.0"?>

<!--
// Copyright (C) 2019 Michele Segata <segata@ccs-labs.org>
//
// Documentation for these modules is at http://veins.car2x.org/
//
// SPDX-License-Identifier: (GPL-2.0-or-later OR CC-BY-SA-4.0)
//
// This program is free software; you can redistribute it and/or modify
// it under the terms of the GNU General Public License as published by
// the Free Software Foundation; either version 2 of the License, or
// (at your option) any later version.
//
// This program is distributed in the hope that it will be useful,
// but WITHOUT ANY WARRANTY; without even the implied warranty of
// MERCHANTABILITY or FITNESS FOR A PARTICULAR PURPOSE.  See the
// GNU General Public License for more details.
//
// You should have received a copy of the GNU General Public License
// along with this program; if not, write to the Free Software
// Foundation, Inc., 59 Temple Place, Suite 330, Boston, MA  02111-1307  USA
//
// -
//
// At your option, you can also redistribute and/or modify this file
// under a
// Creative Commons Attribution-ShareAlike 4.0 International License.
//
// You should have received a copy of the license along with this
// work.  If not, see <http://creativecommons.org/licenses/by-sa/4.0/>.
-->

<routes>
    <vType id="vtypeauto" accel="2.5" decel="9.0" sigma="0.5" length="4" minGap="0" maxSpeed="42" color="1,0,0" probability="1" tau="2.0"
        carFollowModel="CC" tauEngine="0.5" omegaN="0.2" xi="1" c1="0.5" lanesCount="4" ccAccel="1.5" ploegKp="0.2" ploegKd="0.7" ploegH="0.5" />
    <vType id="vtypehuman" accel="1.5" decel="4.5" sigma="0.5" length="4"
           minGap="0" maxSpeed="20" color="0.16,0.33,0.42" vClass="passenger"
           guiShape="passenger" speedFactor="1" departSpeed="max"
           carFollowModel="IDM" />
</routes>
