<?xml version="1.0" encoding="iso-8859-1"?>

<!--
// Copyright (C) 2019 Michele Segata <segata@ccs-labs.org>
//
// Documentation for these modules is at http://veins.car2x.org/
//
// SPDX-License-Identifier: (GPL-2.0-or-later OR CC-BY-SA-4.0)
//
// This program is free software; you can redistribute it and/or modify
// it under the terms of the GNU General Public License as published by
// the Free Software Foundation; either version 2 of the License, or
// (at your option) any later version.
//
// This program is distributed in the hope that it will be useful,
// but WITHOUT ANY WARRANTY; without even the implied warranty of
// MERCHANTABILITY or FITNESS FOR A PARTICULAR PURPOSE.  See the
// GNU General Public License for more details.
//
// You should have received a copy of the GNU General Public License
// along with this program; if not, write to the Free Software
// Foundation, Inc., 59 Temple Place, Suite 330, Boston, MA  02111-1307  USA
//
// -
//
// At your option, you can also redistribute and/or modify this file
// under a
// Creative Commons Attribution-ShareAlike 4.0 International License.
//
// You should have received a copy of the license along with this
// work.  If not, see <http://creativecommons.org/licenses/by-sa/4.0/>.
-->

<net version="0.13" xmlns:xsi="http://www.w3.org/2001/XMLSchema-instance" xsi:noNamespaceSchemaLocation="http://sumo.sf.net/xsd/net_file.xsd">

    <location netOffset="0.00,254.00" convBoundary="0.00,0.00,50000.00,254.00" origBoundary="0.00,-254.00,50000.00,0.00" projParameter="!"/>

    <edge id=":node_0_1_0" function="internal">
        <lane id=":node_0_1_0_0" index="0" speed="90.11" length="4.46" shape="9398.50,242.45 9401.50,239.15"/>
    </edge>
    <edge id=":node_0_1_1" function="internal">
        <lane id=":node_0_1_1_0" index="0" speed="90.11" length="3.00" shape="9398.50,242.45 9401.50,242.45"/>
    </edge>
    <edge id=":node_0_1_2" function="internal">
        <lane id=":node_0_1_2_0" index="0" speed="90.11" length="3.00" shape="9398.50,245.75 9401.50,245.75"/>
    </edge>
    <edge id=":node_0_1_3" function="internal">
        <lane id=":node_0_1_3_0" index="0" speed="90.11" length="3.00" shape="9398.50,249.05 9401.50,249.05"/>
    </edge>
    <edge id=":node_0_1_4" function="internal">
        <lane id=":node_0_1_4_0" index="0" speed="90.11" length="3.00" shape="9398.50,252.35 9401.50,252.35"/>
    </edge>
    <edge id=":node_0_2_0" function="internal">
        <lane id=":node_0_2_0_0" index="0" speed="57.55" length="3.65" shape="9624.13,239.15 9627.69,238.31"/>
    </edge>
    <edge id=":node_0_2_1" function="internal">
        <lane id=":node_0_2_1_0" index="0" speed="90.11" length="3.56" shape="9624.13,242.45 9627.69,242.45"/>
    </edge>
    <edge id=":node_0_2_2" function="internal">
        <lane id=":node_0_2_2_0" index="0" speed="90.11" length="3.56" shape="9624.13,245.75 9627.69,245.75"/>
    </edge>
    <edge id=":node_0_2_3" function="internal">
        <lane id=":node_0_2_3_0" index="0" speed="90.11" length="3.56" shape="9624.13,249.05 9627.69,249.05"/>
    </edge>
    <edge id=":node_0_2_4" function="internal">
        <lane id=":node_0_2_4_0" index="0" speed="90.11" length="3.56" shape="9624.13,252.35 9627.69,252.35"/>
    </edge>
    <edge id=":node_0_3_0" function="internal">
        <lane id=":node_0_3_0_0" index="0" speed="57.55" length="3.65" shape="9772.31,238.31 9775.87,239.15"/>
    </edge>
    <edge id=":node_0_3_1" function="internal">
        <lane id=":node_0_3_1_0" index="0" speed="90.11" length="3.56" shape="9772.31,242.45 9775.87,242.45"/>
    </edge>
    <edge id=":node_0_3_2" function="internal">
        <lane id=":node_0_3_2_0" index="0" speed="90.11" length="3.56" shape="9772.31,245.75 9775.87,245.75"/>
    </edge>
    <edge id=":node_0_3_3" function="internal">
        <lane id=":node_0_3_3_0" index="0" speed="90.11" length="3.56" shape="9772.31,249.05 9775.87,249.05"/>
    </edge>
    <edge id=":node_0_3_4" function="internal">
        <lane id=":node_0_3_4_0" index="0" speed="90.11" length="3.56" shape="9772.31,252.35 9775.87,252.35"/>
    </edge>
    <edge id=":node_0_4_0" function="internal">
        <lane id=":node_0_4_0_0" index="0" speed="90.11" length="3.00" shape="9998.50,242.45 10001.50,242.45"/>
    </edge>
    <edge id=":node_0_4_1" function="internal">
        <lane id=":node_0_4_1_0" index="0" speed="90.11" length="3.00" shape="9998.50,245.75 10001.50,245.75"/>
    </edge>
    <edge id=":node_0_4_2" function="internal">
        <lane id=":node_0_4_2_0" index="0" speed="90.11" length="3.00" shape="9998.50,249.05 10001.50,249.05"/>
    </edge>
    <edge id=":node_0_4_3" function="internal">
        <lane id=":node_0_4_3_0" index="0" speed="90.11" length="3.00" shape="9998.50,252.35 10001.50,252.35"/>
    </edge>
    <edge id=":node_0_5_0" function="internal">
        <lane id=":node_0_5_0_0" index="0" speed="25.00" length="4.48" shape="9701.65,200.49 9701.79,201.65 9702.21,202.64 9702.90,203.45 9703.88,204.09"/>
    </edge>
    <edge id=":node_0_5_1" function="internal">
        <lane id=":node_0_5_1_0" index="0" speed="25.00" length="2.41" shape="9701.65,200.49 9700.82,201.73 9700.00,202.14"/>
    </edge>
    <edge id=":node_0_5_4" function="internal">
        <lane id=":node_0_5_4_0" index="0" speed="25.00" length="2.41" shape="9700.00,202.14 9699.17,201.73 9698.35,200.49"/>
    </edge>
    <edge id=":node_0_5_2" function="internal">
        <lane id=":node_0_5_2_0" index="0" speed="25.00" length="4.48" shape="9696.12,204.09 9697.10,203.45 9697.79,202.64 9698.21,201.65 9698.35,200.49"/>
    </edge>
    <edge id=":node_0_5_3" function="internal">
        <lane id=":node_0_5_3_0" index="0" speed="25.00" length="8.05" shape="9696.12,204.09 9698.06,203.37 9700.00,203.12 9701.94,203.37 9703.88,204.09"/>
    </edge>
    <edge id=":node_0_6_0" function="internal">
        <lane id=":node_0_6_0_0" index="0" speed="25.00" length="0.10" shape="9698.35,4.00 9698.35,4.00"/>
    </edge>
    <edge id=":node_0_6_1" function="internal">
        <lane id=":node_0_6_1_0" index="0" speed="25.00" length="2.41" shape="9698.35,4.00 9699.18,2.76 9700.00,2.35"/>
    </edge>
    <edge id=":node_0_6_4" function="internal">
        <lane id=":node_0_6_4_0" index="0" speed="25.00" length="2.41" shape="9700.00,2.35 9700.83,2.76 9701.65,4.00"/>
    </edge>
    <edge id=":node_0_6_2" function="internal">
        <lane id=":node_0_6_2_0" index="0" speed="25.00" length="0.10" shape="9701.65,4.00 9701.65,4.00"/>
    </edge>
    <edge id=":node_0_6_3" function="internal">
        <lane id=":node_0_6_3_0" index="0" speed="25.00" length="2.41" shape="9701.65,4.00 9700.82,5.24 9700.00,5.65"/>
    </edge>
    <edge id=":node_0_6_5" function="internal">
        <lane id=":node_0_6_5_0" index="0" speed="25.00" length="2.41" shape="9700.00,5.65 9699.17,5.24 9698.35,4.00"/>
    </edge>
    <edge id=":node_0_7_0" function="internal">
        <lane id=":node_0_7_0_0" index="0" speed="25.00" length="4.82" shape="9698.35,0.00 9699.18,-1.24 9700.00,-1.65 9700.83,-1.24 9701.65,0.00"/>
    </edge>
    <edge id=":node_1_1_0" function="internal">
        <lane id=":node_1_1_0_0" index="0" speed="90.11" length="4.46" shape="19398.50,242.45 19401.50,239.15"/>
    </edge>
    <edge id=":node_1_1_1" function="internal">
        <lane id=":node_1_1_1_0" index="0" speed="90.11" length="3.00" shape="19398.50,242.45 19401.50,242.45"/>
    </edge>
    <edge id=":node_1_1_2" function="internal">
        <lane id=":node_1_1_2_0" index="0" speed="90.11" length="3.00" shape="19398.50,245.75 19401.50,245.75"/>
    </edge>
    <edge id=":node_1_1_3" function="internal">
        <lane id=":node_1_1_3_0" index="0" speed="90.11" length="3.00" shape="19398.50,249.05 19401.50,249.05"/>
    </edge>
    <edge id=":node_1_1_4" function="internal">
        <lane id=":node_1_1_4_0" index="0" speed="90.11" length="3.00" shape="19398.50,252.35 19401.50,252.35"/>
    </edge>
    <edge id=":node_1_2_0" function="internal">
        <lane id=":node_1_2_0_0" index="0" speed="57.55" length="3.65" shape="19624.13,239.15 19627.69,238.31"/>
    </edge>
    <edge id=":node_1_2_1" function="internal">
        <lane id=":node_1_2_1_0" index="0" speed="90.11" length="3.56" shape="19624.13,242.45 19627.69,242.45"/>
    </edge>
    <edge id=":node_1_2_2" function="internal">
        <lane id=":node_1_2_2_0" index="0" speed="90.11" length="3.56" shape="19624.13,245.75 19627.69,245.75"/>
    </edge>
    <edge id=":node_1_2_3" function="internal">
        <lane id=":node_1_2_3_0" index="0" speed="90.11" length="3.56" shape="19624.13,249.05 19627.69,249.05"/>
    </edge>
    <edge id=":node_1_2_4" function="internal">
        <lane id=":node_1_2_4_0" index="0" speed="90.11" length="3.56" shape="19624.13,252.35 19627.69,252.35"/>
    </edge>
    <edge id=":node_1_3_0" function="internal">
        <lane id=":node_1_3_0_0" index="0" speed="57.55" length="3.65" shape="19772.31,238.31 19775.87,239.15"/>
    </edge>
    <edge id=":node_1_3_1" function="internal">
        <lane id=":node_1_3_1_0" index="0" speed="90.11" length="3.56" shape="19772.31,242.45 19775.87,242.45"/>
    </edge>
    <edge id=":node_1_3_2" function="internal">
        <lane id=":node_1_3_2_0" index="0" speed="90.11" length="3.56" shape="19772.31,245.75 19775.87,245.75"/>
    </edge>
    <edge id=":node_1_3_3" function="internal">
        <lane id=":node_1_3_3_0" index="0" speed="90.11" length="3.56" shape="19772.31,249.05 19775.87,249.05"/>
    </edge>
    <edge id=":node_1_3_4" function="internal">
        <lane id=":node_1_3_4_0" index="0" speed="90.11" length="3.56" shape="19772.31,252.35 19775.87,252.35"/>
    </edge>
    <edge id=":node_1_4_0" function="internal">
        <lane id=":node_1_4_0_0" index="0" speed="90.11" length="3.00" shape="19998.50,242.45 20001.50,242.45"/>
    </edge>
    <edge id=":node_1_4_1" function="internal">
        <lane id=":node_1_4_1_0" index="0" speed="90.11" length="3.00" shape="19998.50,245.75 20001.50,245.75"/>
    </edge>
    <edge id=":node_1_4_2" function="internal">
        <lane id=":node_1_4_2_0" index="0" speed="90.11" length="3.00" shape="19998.50,249.05 20001.50,249.05"/>
    </edge>
    <edge id=":node_1_4_3" function="internal">
        <lane id=":node_1_4_3_0" index="0" speed="90.11" length="3.00" shape="19998.50,252.35 20001.50,252.35"/>
    </edge>
    <edge id=":node_1_5_0" function="internal">
        <lane id=":node_1_5_0_0" index="0" speed="25.00" length="4.48" shape="19701.65,200.49 19701.79,201.65 19702.21,202.64 19702.90,203.45 19703.88,204.09"/>
    </edge>
    <edge id=":node_1_5_1" function="internal">
        <lane id=":node_1_5_1_0" index="0" speed="25.00" length="2.41" shape="19701.65,200.49 19700.82,201.73 19700.00,202.14"/>
    </edge>
    <edge id=":node_1_5_4" function="internal">
        <lane id=":node_1_5_4_0" index="0" speed="25.00" length="2.41" shape="19700.00,202.14 19699.17,201.73 19698.35,200.49"/>
    </edge>
    <edge id=":node_1_5_2" function="internal">
        <lane id=":node_1_5_2_0" index="0" speed="25.00" length="4.48" shape="19696.12,204.09 19697.10,203.45 19697.79,202.64 19698.21,201.65 19698.35,200.49"/>
    </edge>
    <edge id=":node_1_5_3" function="internal">
        <lane id=":node_1_5_3_0" index="0" speed="25.00" length="8.05" shape="19696.12,204.09 19698.06,203.37 19700.00,203.12 19701.94,203.37 19703.88,204.09"/>
    </edge>
    <edge id=":node_1_6_0" function="internal">
        <lane id=":node_1_6_0_0" index="0" speed="25.00" length="0.10" shape="19698.35,4.00 19698.35,4.00"/>
    </edge>
    <edge id=":node_1_6_1" function="internal">
        <lane id=":node_1_6_1_0" index="0" speed="25.00" length="2.41" shape="19698.35,4.00 19699.18,2.76 19700.00,2.35"/>
    </edge>
    <edge id=":node_1_6_4" function="internal">
        <lane id=":node_1_6_4_0" index="0" speed="25.00" length="2.41" shape="19700.00,2.35 19700.83,2.76 19701.65,4.00"/>
    </edge>
    <edge id=":node_1_6_2" function="internal">
        <lane id=":node_1_6_2_0" index="0" speed="25.00" length="0.10" shape="19701.65,4.00 19701.65,4.00"/>
    </edge>
    <edge id=":node_1_6_3" function="internal">
        <lane id=":node_1_6_3_0" index="0" speed="25.00" length="2.41" shape="19701.65,4.00 19700.82,5.24 19700.00,5.65"/>
    </edge>
    <edge id=":node_1_6_5" function="internal">
        <lane id=":node_1_6_5_0" index="0" speed="25.00" length="2.41" shape="19700.00,5.65 19699.17,5.24 19698.35,4.00"/>
    </edge>
    <edge id=":node_1_7_0" function="internal">
        <lane id=":node_1_7_0_0" index="0" speed="25.00" length="4.82" shape="19698.35,0.00 19699.18,-1.24 19700.00,-1.65 19700.83,-1.24 19701.65,0.00"/>
    </edge>
    <edge id=":node_2_1_0" function="internal">
        <lane id=":node_2_1_0_0" index="0" speed="90.11" length="4.46" shape="29398.50,242.45 29401.50,239.15"/>
    </edge>
    <edge id=":node_2_1_1" function="internal">
        <lane id=":node_2_1_1_0" index="0" speed="90.11" length="3.00" shape="29398.50,242.45 29401.50,242.45"/>
    </edge>
    <edge id=":node_2_1_2" function="internal">
        <lane id=":node_2_1_2_0" index="0" speed="90.11" length="3.00" shape="29398.50,245.75 29401.50,245.75"/>
    </edge>
    <edge id=":node_2_1_3" function="internal">
        <lane id=":node_2_1_3_0" index="0" speed="90.11" length="3.00" shape="29398.50,249.05 29401.50,249.05"/>
    </edge>
    <edge id=":node_2_1_4" function="internal">
        <lane id=":node_2_1_4_0" index="0" speed="90.11" length="3.00" shape="29398.50,252.35 29401.50,252.35"/>
    </edge>
    <edge id=":node_2_2_0" function="internal">
        <lane id=":node_2_2_0_0" index="0" speed="57.55" length="3.65" shape="29624.13,239.15 29627.69,238.31"/>
    </edge>
    <edge id=":node_2_2_1" function="internal">
        <lane id=":node_2_2_1_0" index="0" speed="90.11" length="3.56" shape="29624.13,242.45 29627.69,242.45"/>
    </edge>
    <edge id=":node_2_2_2" function="internal">
        <lane id=":node_2_2_2_0" index="0" speed="90.11" length="3.56" shape="29624.13,245.75 29627.69,245.75"/>
    </edge>
    <edge id=":node_2_2_3" function="internal">
        <lane id=":node_2_2_3_0" index="0" speed="90.11" length="3.56" shape="29624.13,249.05 29627.69,249.05"/>
    </edge>
    <edge id=":node_2_2_4" function="internal">
        <lane id=":node_2_2_4_0" index="0" speed="90.11" length="3.56" shape="29624.13,252.35 29627.69,252.35"/>
    </edge>
    <edge id=":node_2_3_0" function="internal">
        <lane id=":node_2_3_0_0" index="0" speed="57.55" length="3.65" shape="29772.31,238.31 29775.87,239.15"/>
    </edge>
    <edge id=":node_2_3_1" function="internal">
        <lane id=":node_2_3_1_0" index="0" speed="90.11" length="3.56" shape="29772.31,242.45 29775.87,242.45"/>
    </edge>
    <edge id=":node_2_3_2" function="internal">
        <lane id=":node_2_3_2_0" index="0" speed="90.11" length="3.56" shape="29772.31,245.75 29775.87,245.75"/>
    </edge>
    <edge id=":node_2_3_3" function="internal">
        <lane id=":node_2_3_3_0" index="0" speed="90.11" length="3.56" shape="29772.31,249.05 29775.87,249.05"/>
    </edge>
    <edge id=":node_2_3_4" function="internal">
        <lane id=":node_2_3_4_0" index="0" speed="90.11" length="3.56" shape="29772.31,252.35 29775.87,252.35"/>
    </edge>
    <edge id=":node_2_4_0" function="internal">
        <lane id=":node_2_4_0_0" index="0" speed="90.11" length="3.00" shape="29998.50,242.45 30001.50,242.45"/>
    </edge>
    <edge id=":node_2_4_1" function="internal">
        <lane id=":node_2_4_1_0" index="0" speed="90.11" length="3.00" shape="29998.50,245.75 30001.50,245.75"/>
    </edge>
    <edge id=":node_2_4_2" function="internal">
        <lane id=":node_2_4_2_0" index="0" speed="90.11" length="3.00" shape="29998.50,249.05 30001.50,249.05"/>
    </edge>
    <edge id=":node_2_4_3" function="internal">
        <lane id=":node_2_4_3_0" index="0" speed="90.11" length="3.00" shape="29998.50,252.35 30001.50,252.35"/>
    </edge>
    <edge id=":node_2_5_0" function="internal">
        <lane id=":node_2_5_0_0" index="0" speed="25.00" length="4.48" shape="29701.65,200.49 29701.79,201.65 29702.21,202.64 29702.90,203.45 29703.88,204.09"/>
    </edge>
    <edge id=":node_2_5_1" function="internal">
        <lane id=":node_2_5_1_0" index="0" speed="25.00" length="2.41" shape="29701.65,200.49 29700.83,201.73 29700.00,202.14"/>
    </edge>
    <edge id=":node_2_5_4" function="internal">
        <lane id=":node_2_5_4_0" index="0" speed="25.00" length="2.41" shape="29700.00,202.14 29699.17,201.73 29698.35,200.49"/>
    </edge>
    <edge id=":node_2_5_2" function="internal">
        <lane id=":node_2_5_2_0" index="0" speed="25.00" length="4.48" shape="29696.12,204.09 29697.10,203.45 29697.79,202.64 29698.21,201.65 29698.35,200.49"/>
    </edge>
    <edge id=":node_2_5_3" function="internal">
        <lane id=":node_2_5_3_0" index="0" speed="25.00" length="8.05" shape="29696.12,204.09 29698.06,203.37 29700.00,203.12 29701.94,203.37 29703.88,204.09"/>
    </edge>
    <edge id=":node_2_6_0" function="internal">
        <lane id=":node_2_6_0_0" index="0" speed="25.00" length="0.10" shape="29698.35,4.00 29698.35,4.00"/>
    </edge>
    <edge id=":node_2_6_1" function="internal">
        <lane id=":node_2_6_1_0" index="0" speed="25.00" length="2.41" shape="29698.35,4.00 29699.17,2.76 29700.00,2.35"/>
    </edge>
    <edge id=":node_2_6_4" function="internal">
        <lane id=":node_2_6_4_0" index="0" speed="25.00" length="2.41" shape="29700.00,2.35 29700.83,2.76 29701.65,4.00"/>
    </edge>
    <edge id=":node_2_6_2" function="internal">
        <lane id=":node_2_6_2_0" index="0" speed="25.00" length="0.10" shape="29701.65,4.00 29701.65,4.00"/>
    </edge>
    <edge id=":node_2_6_3" function="internal">
        <lane id=":node_2_6_3_0" index="0" speed="25.00" length="2.41" shape="29701.65,4.00 29700.83,5.24 29700.00,5.65"/>
    </edge>
    <edge id=":node_2_6_5" function="internal">
        <lane id=":node_2_6_5_0" index="0" speed="25.00" length="2.41" shape="29700.00,5.65 29699.17,5.24 29698.35,4.00"/>
    </edge>
    <edge id=":node_2_7_0" function="internal">
        <lane id=":node_2_7_0_0" index="0" speed="25.00" length="4.82" shape="29698.35,0.00 29699.17,-1.24 29700.00,-1.65 29700.83,-1.24 29701.65,0.00"/>
    </edge>
    <edge id=":node_3_1_0" function="internal">
        <lane id=":node_3_1_0_0" index="0" speed="90.11" length="4.46" shape="39398.50,242.45 39401.50,239.15"/>
    </edge>
    <edge id=":node_3_1_1" function="internal">
        <lane id=":node_3_1_1_0" index="0" speed="90.11" length="3.00" shape="39398.50,242.45 39401.50,242.45"/>
    </edge>
    <edge id=":node_3_1_2" function="internal">
        <lane id=":node_3_1_2_0" index="0" speed="90.11" length="3.00" shape="39398.50,245.75 39401.50,245.75"/>
    </edge>
    <edge id=":node_3_1_3" function="internal">
        <lane id=":node_3_1_3_0" index="0" speed="90.11" length="3.00" shape="39398.50,249.05 39401.50,249.05"/>
    </edge>
    <edge id=":node_3_1_4" function="internal">
        <lane id=":node_3_1_4_0" index="0" speed="90.11" length="3.00" shape="39398.50,252.35 39401.50,252.35"/>
    </edge>
    <edge id=":node_3_2_0" function="internal">
        <lane id=":node_3_2_0_0" index="0" speed="57.55" length="3.65" shape="39624.13,239.15 39627.69,238.31"/>
    </edge>
    <edge id=":node_3_2_1" function="internal">
        <lane id=":node_3_2_1_0" index="0" speed="90.11" length="3.56" shape="39624.13,242.45 39627.69,242.45"/>
    </edge>
    <edge id=":node_3_2_2" function="internal">
        <lane id=":node_3_2_2_0" index="0" speed="90.11" length="3.56" shape="39624.13,245.75 39627.69,245.75"/>
    </edge>
    <edge id=":node_3_2_3" function="internal">
        <lane id=":node_3_2_3_0" index="0" speed="90.11" length="3.56" shape="39624.13,249.05 39627.69,249.05"/>
    </edge>
    <edge id=":node_3_2_4" function="internal">
        <lane id=":node_3_2_4_0" index="0" speed="90.11" length="3.56" shape="39624.13,252.35 39627.69,252.35"/>
    </edge>
    <edge id=":node_3_3_0" function="internal">
        <lane id=":node_3_3_0_0" index="0" speed="57.55" length="3.65" shape="39772.31,238.31 39775.87,239.15"/>
    </edge>
    <edge id=":node_3_3_1" function="internal">
        <lane id=":node_3_3_1_0" index="0" speed="90.11" length="3.56" shape="39772.31,242.45 39775.87,242.45"/>
    </edge>
    <edge id=":node_3_3_2" function="internal">
        <lane id=":node_3_3_2_0" index="0" speed="90.11" length="3.56" shape="39772.31,245.75 39775.87,245.75"/>
    </edge>
    <edge id=":node_3_3_3" function="internal">
        <lane id=":node_3_3_3_0" index="0" speed="90.11" length="3.56" shape="39772.31,249.05 39775.87,249.05"/>
    </edge>
    <edge id=":node_3_3_4" function="internal">
        <lane id=":node_3_3_4_0" index="0" speed="90.11" length="3.56" shape="39772.31,252.35 39775.87,252.35"/>
    </edge>
    <edge id=":node_3_4_0" function="internal">
        <lane id=":node_3_4_0_0" index="0" speed="90.11" length="3.00" shape="39998.50,242.45 40001.50,242.45"/>
    </edge>
    <edge id=":node_3_4_1" function="internal">
        <lane id=":node_3_4_1_0" index="0" speed="90.11" length="3.00" shape="39998.50,245.75 40001.50,245.75"/>
    </edge>
    <edge id=":node_3_4_2" function="internal">
        <lane id=":node_3_4_2_0" index="0" speed="90.11" length="3.00" shape="39998.50,249.05 40001.50,249.05"/>
    </edge>
    <edge id=":node_3_4_3" function="internal">
        <lane id=":node_3_4_3_0" index="0" speed="90.11" length="3.00" shape="39998.50,252.35 40001.50,252.35"/>
    </edge>
    <edge id=":node_3_5_0" function="internal">
        <lane id=":node_3_5_0_0" index="0" speed="25.00" length="4.48" shape="39701.65,200.49 39701.79,201.65 39702.21,202.64 39702.90,203.45 39703.88,204.09"/>
    </edge>
    <edge id=":node_3_5_1" function="internal">
        <lane id=":node_3_5_1_0" index="0" speed="25.00" length="2.41" shape="39701.65,200.49 39700.83,201.73 39700.00,202.14"/>
    </edge>
    <edge id=":node_3_5_4" function="internal">
        <lane id=":node_3_5_4_0" index="0" speed="25.00" length="2.41" shape="39700.00,202.14 39699.18,201.73 39698.35,200.49"/>
    </edge>
    <edge id=":node_3_5_2" function="internal">
        <lane id=":node_3_5_2_0" index="0" speed="25.00" length="4.48" shape="39696.12,204.09 39697.10,203.45 39697.79,202.64 39698.21,201.65 39698.35,200.49"/>
    </edge>
    <edge id=":node_3_5_3" function="internal">
        <lane id=":node_3_5_3_0" index="0" speed="25.00" length="8.05" shape="39696.12,204.09 39698.06,203.37 39700.00,203.12 39701.94,203.37 39703.88,204.09"/>
    </edge>
    <edge id=":node_3_6_0" function="internal">
        <lane id=":node_3_6_0_0" index="0" speed="25.00" length="0.10" shape="39698.35,4.00 39698.35,4.00"/>
    </edge>
    <edge id=":node_3_6_1" function="internal">
        <lane id=":node_3_6_1_0" index="0" speed="25.00" length="2.41" shape="39698.35,4.00 39699.17,2.76 39700.00,2.35"/>
    </edge>
    <edge id=":node_3_6_4" function="internal">
        <lane id=":node_3_6_4_0" index="0" speed="25.00" length="2.41" shape="39700.00,2.35 39700.82,2.76 39701.65,4.00"/>
    </edge>
    <edge id=":node_3_6_2" function="internal">
        <lane id=":node_3_6_2_0" index="0" speed="25.00" length="0.10" shape="39701.65,4.00 39701.65,4.00"/>
    </edge>
    <edge id=":node_3_6_3" function="internal">
        <lane id=":node_3_6_3_0" index="0" speed="25.00" length="2.41" shape="39701.65,4.00 39700.83,5.24 39700.00,5.65"/>
    </edge>
    <edge id=":node_3_6_5" function="internal">
        <lane id=":node_3_6_5_0" index="0" speed="25.00" length="2.41" shape="39700.00,5.65 39699.18,5.24 39698.35,4.00"/>
    </edge>
    <edge id=":node_3_7_0" function="internal">
        <lane id=":node_3_7_0_0" index="0" speed="25.00" length="4.82" shape="39698.35,0.00 39699.17,-1.24 39700.00,-1.65 39700.82,-1.24 39701.65,0.00"/>
    </edge>
    <edge id=":node_4_1_0" function="internal">
        <lane id=":node_4_1_0_0" index="0" speed="90.11" length="4.46" shape="49398.50,242.45 49401.50,239.15"/>
    </edge>
    <edge id=":node_4_1_1" function="internal">
        <lane id=":node_4_1_1_0" index="0" speed="90.11" length="3.00" shape="49398.50,242.45 49401.50,242.45"/>
    </edge>
    <edge id=":node_4_1_2" function="internal">
        <lane id=":node_4_1_2_0" index="0" speed="90.11" length="3.00" shape="49398.50,245.75 49401.50,245.75"/>
    </edge>
    <edge id=":node_4_1_3" function="internal">
        <lane id=":node_4_1_3_0" index="0" speed="90.11" length="3.00" shape="49398.50,249.05 49401.50,249.05"/>
    </edge>
    <edge id=":node_4_1_4" function="internal">
        <lane id=":node_4_1_4_0" index="0" speed="90.11" length="3.00" shape="49398.50,252.35 49401.50,252.35"/>
    </edge>
    <edge id=":node_4_2_0" function="internal">
        <lane id=":node_4_2_0_0" index="0" speed="57.55" length="3.65" shape="49624.13,239.15 49627.69,238.31"/>
    </edge>
    <edge id=":node_4_2_1" function="internal">
        <lane id=":node_4_2_1_0" index="0" speed="90.11" length="3.56" shape="49624.13,242.45 49627.69,242.45"/>
    </edge>
    <edge id=":node_4_2_2" function="internal">
        <lane id=":node_4_2_2_0" index="0" speed="90.11" length="3.56" shape="49624.13,245.75 49627.69,245.75"/>
    </edge>
    <edge id=":node_4_2_3" function="internal">
        <lane id=":node_4_2_3_0" index="0" speed="90.11" length="3.56" shape="49624.13,249.05 49627.69,249.05"/>
    </edge>
    <edge id=":node_4_2_4" function="internal">
        <lane id=":node_4_2_4_0" index="0" speed="90.11" length="3.56" shape="49624.13,252.35 49627.69,252.35"/>
    </edge>
    <edge id=":node_4_3_0" function="internal">
        <lane id=":node_4_3_0_0" index="0" speed="57.55" length="3.65" shape="49772.31,238.31 49775.87,239.15"/>
    </edge>
    <edge id=":node_4_3_1" function="internal">
        <lane id=":node_4_3_1_0" index="0" speed="90.11" length="3.56" shape="49772.31,242.45 49775.87,242.45"/>
    </edge>
    <edge id=":node_4_3_2" function="internal">
        <lane id=":node_4_3_2_0" index="0" speed="90.11" length="3.56" shape="49772.31,245.75 49775.87,245.75"/>
    </edge>
    <edge id=":node_4_3_3" function="internal">
        <lane id=":node_4_3_3_0" index="0" speed="90.11" length="3.56" shape="49772.31,249.05 49775.87,249.05"/>
    </edge>
    <edge id=":node_4_3_4" function="internal">
        <lane id=":node_4_3_4_0" index="0" speed="90.11" length="3.56" shape="49772.31,252.35 49775.87,252.35"/>
    </edge>
    <edge id=":node_4_5_0" function="internal">
        <lane id=":node_4_5_0_0" index="0" speed="25.00" length="4.48" shape="49701.65,200.49 49701.79,201.65 49702.21,202.64 49702.90,203.45 49703.88,204.09"/>
    </edge>
    <edge id=":node_4_5_1" function="internal">
        <lane id=":node_4_5_1_0" index="0" speed="25.00" length="2.41" shape="49701.65,200.49 49700.83,201.73 49700.00,202.14"/>
    </edge>
    <edge id=":node_4_5_4" function="internal">
        <lane id=":node_4_5_4_0" index="0" speed="25.00" length="2.41" shape="49700.00,202.14 49699.18,201.73 49698.35,200.49"/>
    </edge>
    <edge id=":node_4_5_2" function="internal">
        <lane id=":node_4_5_2_0" index="0" speed="25.00" length="4.48" shape="49696.12,204.09 49697.10,203.45 49697.79,202.64 49698.21,201.65 49698.35,200.49"/>
    </edge>
    <edge id=":node_4_5_3" function="internal">
        <lane id=":node_4_5_3_0" index="0" speed="25.00" length="8.05" shape="49696.12,204.09 49698.06,203.37 49700.00,203.12 49701.94,203.37 49703.88,204.09"/>
    </edge>
    <edge id=":node_4_6_0" function="internal">
        <lane id=":node_4_6_0_0" index="0" speed="25.00" length="0.10" shape="49698.35,4.00 49698.35,4.00"/>
    </edge>
    <edge id=":node_4_6_1" function="internal">
        <lane id=":node_4_6_1_0" index="0" speed="25.00" length="2.41" shape="49698.35,4.00 49699.17,2.76 49700.00,2.35"/>
    </edge>
    <edge id=":node_4_6_4" function="internal">
        <lane id=":node_4_6_4_0" index="0" speed="25.00" length="2.41" shape="49700.00,2.35 49700.82,2.76 49701.65,4.00"/>
    </edge>
    <edge id=":node_4_6_2" function="internal">
        <lane id=":node_4_6_2_0" index="0" speed="25.00" length="0.10" shape="49701.65,4.00 49701.65,4.00"/>
    </edge>
    <edge id=":node_4_6_3" function="internal">
        <lane id=":node_4_6_3_0" index="0" speed="25.00" length="2.41" shape="49701.65,4.00 49700.83,5.24 49700.00,5.65"/>
    </edge>
    <edge id=":node_4_6_5" function="internal">
        <lane id=":node_4_6_5_0" index="0" speed="25.00" length="2.41" shape="49700.00,5.65 49699.18,5.24 49698.35,4.00"/>
    </edge>
    <edge id=":node_4_7_0" function="internal">
        <lane id=":node_4_7_0_0" index="0" speed="25.00" length="4.82" shape="49698.35,0.00 49699.17,-1.24 49700.00,-1.65 49700.82,-1.24 49701.65,0.00"/>
    </edge>

    <edge id="absorption_0" from="node_0_6" to="node_0_7" priority="7">
        <lane id="absorption_0_0" index="0" speed="25.00" length="4.00" shape="9698.35,4.00 9698.35,0.00"/>
    </edge>
    <edge id="absorption_1" from="node_1_6" to="node_1_7" priority="7">
        <lane id="absorption_1_0" index="0" speed="25.00" length="4.00" shape="19698.35,4.00 19698.35,0.00"/>
    </edge>
    <edge id="absorption_2" from="node_2_6" to="node_2_7" priority="7">
        <lane id="absorption_2_0" index="0" speed="25.00" length="4.00" shape="29698.35,4.00 29698.35,0.00"/>
    </edge>
    <edge id="absorption_3" from="node_3_6" to="node_3_7" priority="7">
        <lane id="absorption_3_0" index="0" speed="25.00" length="4.00" shape="39698.35,4.00 39698.35,0.00"/>
    </edge>
    <edge id="absorption_4" from="node_4_6" to="node_4_7" priority="7">
        <lane id="absorption_4_0" index="0" speed="25.00" length="4.00" shape="49698.35,4.00 49698.35,0.00"/>
    </edge>
    <edge id="edge_0_0" from="node_0_0" to="node_0_1" priority="7">
        <lane id="edge_0_0_0" index="0" speed="90.11" length="9398.50" shape="0.00,242.45 9398.50,242.45"/>